@<TRIPOS>MOLECULE
RES
173 184 1 0 1
SMALL
NO_CHARGES
@<TRIPOS>CRYSIN
   18.3905    46.8694    20.9616    90.0000    90.0000    90.0000  1  1
@<TRIPOS>ATOM
       1 C           -1.4215     0.0608    -0.1522 C             1 RES     
       2 C           -0.2841     0.7933     0.6146 C             1 RES     
       3 C            0.6888     0.0801     0.9721 C             1 RES     
       4 C            0.3082    -1.0569     0.4298 C             1 RES     
       5 C           -0.9450    -1.5549     0.5358 C             1 RES     
       6 C           -1.5405    -1.7049    -0.6560 C             1 RES     
       7 C           -1.5658    -3.6991    -0.6986 C             1 RES     
       8 C           -2.4911    -5.2925    -0.5147 C             1 RES     
       9 C           -3.7926    -4.5027    -0.6494 C             1 RES     
      10 N           -4.7135    -3.7920    -0.7335 N             1 RES     
      11 C           -3.1545    -6.6506    -0.6751 C             1 RES     
      12 N           -3.7049    -7.7773    -0.8082 N             1 RES     
      13 C           -0.3895    -3.9343     0.1565 C             1 RES     
      14 C            1.0075    -3.7241     0.2420 C             1 RES     
      15 C            2.3232    -2.6757    -0.1450 C             1 RES     
      16 S            3.0093    -1.2629     0.8110 S             1 RES     
      17 C            2.4651     0.1299    -0.7144 C             1 RES     
      18 C            2.6758    -0.7944    -1.8089 C             1 RES     
      19 C            2.6142    -2.1505    -1.5011 C             1 RES     
      20 C            3.1554    -3.3344    -2.1775 C             1 RES     
      21 C            2.8945    -4.6942    -1.4972 C             1 RES     
      22 C            3.5412    -5.7956    -2.2215 C             1 RES     
      23 C            3.2237    -7.0964    -1.5162 C             1 RES     
      24 C            3.8905    -8.1862    -2.3114 C             1 RES     
      25 C            3.6318    -9.5265    -1.6693 C             1 RES     
      26 C            4.3120   -10.6100    -2.4791 C             1 RES     
      27 C            4.0587   -11.9609    -1.8415 C             1 RES     
      28 C            4.7383   -13.0495    -2.6493 C             1 RES     
      29 C            4.4874   -14.4063    -2.0142 C             1 RES     
      30 C            5.1667   -15.4907    -2.8222 C             1 RES     
      31 S            3.1451     0.2772    -3.1177 S             1 RES     
      32 C            2.5043     1.8081    -2.3148 C             1 RES     
      33 C            1.9570     1.5658    -0.9620 C             1 RES     
      34 N            1.3184     3.1153    -0.5290 N             1 RES     
      35 C            1.7641     4.0285    -1.5388 C             1 RES     
      36 C            2.4896     3.1535    -2.5983 C             1 RES     
      37 C            3.0133     3.9184    -3.6914 C             1 RES     
      38 C            2.6038     5.3592    -3.7983 C             1 RES     
      39 C            1.8155     6.1688    -2.8870 C             1 RES     
      40 C            1.6010     5.4266    -1.6061 C             1 RES     
      41 N            1.2109     6.4749    -0.7405 N             1 RES     
      42 C            1.2890     7.6802    -1.3554 C             1 RES     
      43 C            1.3182     7.4872    -2.7745 C             1 RES     
      44 S            1.0135     9.1712    -3.4154 S             1 RES     
      45 C            1.5258     9.9178    -1.8761 C             1 RES     
      46 C            1.6779     8.8859    -0.9278 C             1 RES     
      47 S            2.5301     9.3428     0.4959 S             1 RES     
      48 C            2.7340    10.9694    -0.1304 C             1 RES     
      49 C            3.5797    11.8934     0.3989 C             1 RES     
      50 C            4.3350    12.0301     1.6516 C             1 RES     
      51 C            4.9071    12.9542     2.4622 C             1 RES     
      52 C            4.5154    14.2428     2.0752 C             1 RES     
      53 C            3.1060    14.2218     1.9648 C             1 RES     
      54 C            3.2290    12.4121     2.4540 C             1 RES     
      55 O            2.9434    11.2951     2.8924 O             1 RES     
      56 C            3.2937    15.5745     1.4208 C             1 RES     
      57 C            4.5081    16.5235     0.9712 C             1 RES     
      58 C            5.7724    16.2221     1.1923 C             1 RES     
      59 C            5.7641    15.1004     1.8837 C             1 RES     
      60 F            6.8378    16.9777     0.9169 F             1 RES     
      61 F            4.4003    17.7522     0.4876 F             1 RES     
      62 C            5.1616    12.8653     3.9459 C             1 RES     
      63 C            6.2929    11.8617     3.7934 C             1 RES     
      64 N            7.2315    11.0291     3.6669 N             1 RES     
      65 C            5.7222    14.1899     4.4374 C             1 RES     
      66 N            6.1873    15.2888     4.8451 N             1 RES     
      67 C            1.9269    11.1210    -1.3888 C             1 RES     
      68 C            1.8118    12.4247    -2.0992 C             1 RES     
      69 C            2.4303    13.6366    -1.4431 C             1 RES     
      70 C            2.3127    14.8880    -2.2279 C             1 RES     
      71 C            2.9924    16.0035    -1.4950 C             1 RES     
      72 C            2.8481    17.3093    -2.2146 C             1 RES     
      73 C            3.4873    18.4612    -1.4858 C             1 RES     
      74 C            3.3562    19.7613    -2.2020 C             1 RES     
      75 C            4.0432    20.8608    -1.4056 C             1 RES     
      76 C            3.9136    22.1498    -2.1861 C             1 RES     
      77 C            4.5717    23.2939    -1.4413 C             1 RES     
      78 C            4.4263    24.5723    -2.2374 C             1 RES     
      79 C            0.7874     6.4999     0.5491 C             1 RES     
      80 C           -0.1504     7.3091     1.0550 C             1 RES     
      81 O           -0.6627     7.0921     2.2891 O             1 RES     
      82 C           -1.4309     8.0270     2.9079 C             1 RES     
      83 C           -1.7704     7.9327     4.1971 C             1 RES     
      84 O           -2.7320     8.7064     4.8041 O             1 RES     
      85 C           -3.0209     8.5357     6.1459 C             1 RES     
      86 C           -3.9536     9.2517     6.7889 C             1 RES     
      87 O           -4.4242     8.9416     8.0376 O             1 RES     
      88 C           -5.3876     9.6700     8.6755 C             1 RES     
      89 N            3.1251     5.9412    -4.8517 N             1 RES     
      90 S            4.1239     4.8842    -5.6051 S             1 RES     
      91 N            3.8152     3.5035    -4.6946 N             1 RES     
      92 C            0.1053     3.8684     0.3337 C             1 RES     
      93 C           -0.3230     3.8876     1.6677 C             1 RES     
      94 O           -1.1762     4.7686     2.3755 O             1 RES     
      95 C           -1.6009     4.5243     3.7079 C             1 RES     
      96 C           -2.5311     5.2330     4.3968 C             1 RES     
      97 O           -2.8522     5.0752     5.7555 O             1 RES     
      98 C           -3.8406     5.8516     6.3774 C             1 RES     
      99 C           -4.1858     5.7509     7.6795 C             1 RES     
     100 O           -4.9650     6.6642     8.3600 O             1 RES     
     101 C           -5.2819     6.5541     9.6898 C             1 RES     
     102 C           -1.5501    -2.7522     0.6952 C             1 RES     
     103 O           -2.8227    -2.5849     0.6217 O             1 RES     
     104 F            1.8801     0.7277     1.2309 F             1 RES     
     105 F            0.1839     1.9534     0.9486 F             1 RES     
     106 H           -1.9492     1.0764    -0.2379 H             1 RES     
     107 H            0.8329    -1.8236     0.1455 H             1 RES     
     108 H            1.4268    -4.7328     0.3511 H             1 RES     
     109 H            4.2316    -3.1641    -2.1512 H             1 RES     
     110 H            2.6951    -3.3359    -3.1512 H             1 RES     
     111 H            1.8239    -4.9253    -1.5580 H             1 RES     
     112 H            3.2636    -4.7355    -0.4494 H             1 RES     
     113 H            4.6109    -5.5909    -2.2359 H             1 RES     
     114 H            3.1225    -5.7810    -3.2282 H             1 RES     
     115 H            2.1384    -7.2654    -1.4614 H             1 RES     
     116 H            3.5953    -7.0840    -0.4822 H             1 RES     
     117 H            4.9679    -7.9879    -2.3601 H             1 RES     
     118 H            3.5037    -8.1737    -3.3377 H             1 RES     
     119 H            2.5525    -9.7134    -1.6211 H             1 RES     
     120 H            4.0159    -9.5263    -0.6425 H             1 RES     
     121 H            5.3904   -10.4152    -2.5285 H             1 RES     
     122 H            3.9279   -10.6025    -3.5065 H             1 RES     
     123 H            2.9798   -12.1510    -1.7926 H             1 RES     
     124 H            4.4427   -11.9636    -0.8143 H             1 RES     
     125 H            5.8166   -12.8544    -2.6991 H             1 RES     
     126 H            4.3545   -13.0417    -3.6768 H             1 RES     
     127 H            3.4100   -14.6013    -1.9665 H             1 RES     
     128 H            4.8729   -14.4139    -0.9882 H             1 RES     
     129 H            4.7788   -15.5048    -3.8457 H             1 RES     
     130 H            4.9878   -16.4677    -2.3676 H             1 RES     
     131 H            6.2465   -15.3168    -2.8642 H             1 RES     
     132 H            3.4248    12.9099     0.1507 H             1 RES     
     133 H            2.4148    16.2179     1.2313 H             1 RES     
     134 H            6.6947    14.8918     2.3895 H             1 RES     
     135 H            0.7492    12.6500    -2.2137 H             1 RES     
     136 H            2.3032    12.3038    -3.0601 H             1 RES     
     137 H            3.5218    13.4882    -1.3952 H             1 RES     
     138 H            1.9302    13.8018    -0.4696 H             1 RES     
     139 H            1.2531    15.1115    -2.3086 H             1 RES     
     140 H            2.8091    14.7381    -3.1792 H             1 RES     
     141 H            4.0430    15.7549    -1.2816 H             1 RES     
     142 H            2.4041    16.1056    -0.5993 H             1 RES     
     143 H            1.7809    17.5118    -2.3185 H             1 RES     
     144 H            3.3268    17.1962    -3.1827 H             1 RES     
     145 H            4.5668    18.2708    -1.4524 H             1 RES     
     146 H            3.0189    18.5888    -0.4978 H             1 RES     
     147 H            2.2955    19.9826    -2.3378 H             1 RES     
     148 H            3.8406    19.6438    -3.1741 H             1 RES     
     149 H            5.1038    20.6237    -1.2425 H             1 RES     
     150 H            3.5836    20.9678    -0.4142 H             1 RES     
     151 H            2.8510    22.3677    -2.3482 H             1 RES     
     152 H            4.3789    22.0256    -3.1718 H             1 RES     
     153 H            5.6334    23.0739    -1.2832 H             1 RES     
     154 H            4.1048    23.4144    -0.4574 H             1 RES     
     155 H            4.9016    24.4684    -3.2180 H             1 RES     
     156 H            4.8977    25.4017    -1.7062 H             1 RES     
     157 H            3.3686    24.8095    -2.3901 H             1 RES     
     158 H            1.2383     5.7166     1.1231 H             1 RES     
     159 H           -0.5330     8.1655     0.5213 H             1 RES     
     160 H           -1.6800     8.8670     2.2974 H             1 RES     
     161 H           -1.3779     7.1366     4.8152 H             1 RES     
     162 H           -2.5435     7.6918     6.6310 H             1 RES     
     163 H           -4.3247    10.1588     6.3669 H             1 RES     
     164 H           -5.6547     9.2587     9.6418 H             1 RES     
     165 H           -6.1590    10.1145     8.0823 H             1 RES     
     166 H           -0.3444     4.6708    -0.2872 H             1 RES     
     167 H           -0.0218     3.1442     2.3763 H             1 RES     
     168 H           -1.2114     3.6252     4.1419 H             1 RES     
     169 H           -3.0448     6.0650     3.9385 H             1 RES     
     170 H           -4.2305     6.6561     5.7633 H             1 RES     
     171 H           -3.9154     4.8953     8.2586 H             1 RES     
     172 H           -5.8827     7.3795    10.0589 H             1 RES     
     173 H           -4.5587     6.1312    10.3564 H             1 RES     
@<TRIPOS>BOND
       1        2        1 1
       2        6        1 1
       3      106        1 1
       4        3        2 1
       5      105        2 1
       6        4        3 1
       7      104        3 1
       8        5        4 1
       9      107        4 1
      10        6        5 1
      11      102        5 1
      12        7        6 1
      13        8        7 1
      14       13        7 1
      15        9        8 1
      16       11        8 1
      17       10        9 1
      18       12       11 1
      19       14       13 1
      20      102       13 1
      21       15       14 1
      22      108       14 1
      23       16       15 1
      24       19       15 1
      25       17       16 1
      26       18       17 1
      27       33       17 1
      28       19       18 1
      29       31       18 1
      30       20       19 1
      31       21       20 1
      32      109       20 1
      33      110       20 1
      34       22       21 1
      35      111       21 1
      36      112       21 1
      37       23       22 1
      38      113       22 1
      39      114       22 1
      40       24       23 1
      41      115       23 1
      42      116       23 1
      43       25       24 1
      44      117       24 1
      45      118       24 1
      46       26       25 1
      47      119       25 1
      48      120       25 1
      49       27       26 1
      50      121       26 1
      51      122       26 1
      52       28       27 1
      53      123       27 1
      54      124       27 1
      55       29       28 1
      56      125       28 1
      57      126       28 1
      58       30       29 1
      59      127       29 1
      60      128       29 1
      61      129       30 1
      62      130       30 1
      63      131       30 1
      64       32       31 1
      65       33       32 1
      66       36       32 1
      67       34       33 1
      68       35       34 1
      69       92       34 1
      70       36       35 1
      71       40       35 1
      72       37       36 1
      73       38       37 1
      74       91       37 1
      75       39       38 1
      76       89       38 1
      77       40       39 1
      78       43       39 1
      79       41       40 1
      80       42       41 1
      81       79       41 1
      82       43       42 1
      83       46       42 1
      84       44       43 1
      85       45       44 1
      86       46       45 1
      87       67       45 1
      88       47       46 1
      89       48       47 1
      90       49       48 1
      91       67       48 1
      92       50       49 1
      93      132       49 1
      94       51       50 1
      95       54       50 1
      96       52       51 1
      97       62       51 1
      98       53       52 1
      99       59       52 1
     100       54       53 1
     101       56       53 1
     102       55       54 1
     103       57       56 1
     104      133       56 1
     105       58       57 1
     106       61       57 1
     107       59       58 1
     108       60       58 1
     109      134       59 1
     110       63       62 1
     111       65       62 1
     112       64       63 1
     113       66       65 1
     114       68       67 1
     115       69       68 1
     116      135       68 1
     117      136       68 1
     118       70       69 1
     119      137       69 1
     120      138       69 1
     121       71       70 1
     122      139       70 1
     123      140       70 1
     124       72       71 1
     125      141       71 1
     126      142       71 1
     127       73       72 1
     128      143       72 1
     129      144       72 1
     130       74       73 1
     131      145       73 1
     132      146       73 1
     133       75       74 1
     134      147       74 1
     135      148       74 1
     136       76       75 1
     137      149       75 1
     138      150       75 1
     139       77       76 1
     140      151       76 1
     141      152       76 1
     142       78       77 1
     143      153       77 1
     144      154       77 1
     145      155       78 1
     146      156       78 1
     147      157       78 1
     148       80       79 1
     149      158       79 1
     150       81       80 1
     151      159       80 1
     152       82       81 1
     153       83       82 1
     154      160       82 1
     155       84       83 1
     156      161       83 1
     157       85       84 1
     158       86       85 1
     159      162       85 1
     160       87       86 1
     161      163       86 1
     162       88       87 1
     163      164       88 1
     164      165       88 1
     165       90       89 1
     166       91       90 1
     167       93       92 1
     168      166       92 1
     169       94       93 1
     170      167       93 1
     171       95       94 1
     172       96       95 1
     173      168       95 1
     174       97       96 1
     175      169       96 1
     176       98       97 1
     177       99       98 1
     178      170       98 1
     179      100       99 1
     180      171       99 1
     181      101      100 1
     182      172      101 1
     183      173      101 1
     184      103      102 1
@<TRIPOS>SUBSTRUCTURE
       1 RES             1 RESIDUE    0 **** ROOT      0
